/*--------------------------------*- C++ -*----------------------------------*\
| =========                 |                                                 |
| \\      /  F ield         | OpenFOAM: The Open Source CFD Toolbox           |
|  \\    /   O peration     | Version:  2406                                  |
|   \\  /    A nd           | Website:  www.openfoam.com                      |
|    \\/     /     M anipulation|                                            |
\*---------------------------------------------------------------------------*/
FoamFile
{
    version     2.0;
    format      ascii;
    class       dictionary;
    location    "system";
    object      snappyHexMeshDict;
}

castellatedMesh true;
snap            true;
addLayers       true;

geometry
{
    slat.stl
    {
        type triSurfaceMesh;
        name slat;
    }
    main.stl
    {
        type triSurfaceMesh;
        name main;
    }
    flap.stl
    {
        type triSurfaceMesh;
        name flap;
    }
}

castellatedMeshControls
{
    features
    (
        { file "slat.eMesh"; level 8; }
        { file "main.eMesh"; level 8; }
        { file "flap.eMesh"; level 8; }
    );

    refinementSurfaces
    {
        slat { level (7 7); }
        main { level (7 7); }
        flap { level (7 7); }
    }

    // --- INSERTED EMPTY BLOCK ---
    refinementRegions
    {
    }
    // --- END INSERTION ---

    locationInMesh (5 0 0);

    maxLocalCells        100000;
    maxGlobalCells       2000000;
    minRefinementCells   0;
    nCellsBetweenLevels  3;
    resolveFeatureAngle  30;
    allowFreeStandingZoneFaces true;
    planarAngle          30;
    maxLoadUnbalance     0.10;
}

snapControls
{
    nSolveIter       50;
    nSmoothPatch     3;
    tolerance        2.0;
    nRelaxIter       5;
    nFeatureSnapIter 10;
    implicitFeatureSnap false;
    explicitFeatureSnap true;
    multiRegionFeatureSnap false;
}

addLayersControls
{
    layers
    {
        "slat" { nSurfaceLayers 3; }
        "main" { nSurfaceLayers 5; }
        "flap" { nSurfaceLayers 3; }
    }

    relativeSizes           true;
    expansionRatio          1.3;
    finalLayerThickness     0.5;
    minThickness            0.001;
    nGrow                   0;
    featureAngle            180;
    slipFeatureAngle        80;
    nRelaxIter              5;
    nSmoothSurfaceNormals   1;
    nSmoothNormals          3;
    nSmoothThickness        10;
    maxFaceThicknessRatio   0.5;
    maxThicknessToMedialRatio 0.3;
    minMedialAxisAngle      90;
    nBufferCellsNoExtrude   0;
    nLayerIter              50;
    nRelaxedIter            20;
    writeVTK                false;
    noErrors                false;
    layerRecovery           1;
    growZoneLayers          false;
    projectGrownUp          0.0;
}

meshQualityControls
{
    maxNonOrtho         60;
    maxBoundarySkewness 4;
    maxInternalSkewness 4;
    maxConcave          80;
    minFlatness         0.5;
    minVol              1e-13;
    minTetQuality       -1e30;
    minArea             -1;
    minTwist            0.03;
    minDeterminant      0.01;
    minFaceWeight       0.03;
    minVolRatio         0.01;
    minTriangleTwist    -1;
    nSmoothScale        4;
    errorReduction      0.75;
    relaxed
    {
        maxNonOrtho         65;
        maxBoundarySkewness 5;
        minTetQuality       -1e30;
    }
}

debug          0;
mergeTolerance 1e-6;
autoBlockMesh  false;
