/*--------------------------------*- C++ -*----------------------------------*\
| =========                 |                                                 |
| \\      /  F ield         | OpenFOAM: The Open Source CFD Toolbox           |
|  \\    /   O peration     | Version:  2.3.0                                 |
|   \\  /    A nd           | Web:      www.OpenFOAM.org                      |
|    \\/     M anipulation  |                                                 |
\*---------------------------------------------------------------------------*/
FoamFile
{
    version     2.0;
    format      ascii;
    class       dictionary;
    object      surfaceFeatureExtractDict;
}

// Extract all edges on each element STL so snappy can snap to them
slat.stl
{
    extractionMethod extractFromSurface;
    extractFromSurfaceCoeffs
    {
        // 0: no edges, 180: all edges
        includedAngle   180;
    }
    writeObj        false;
}

main.stl
{
    extractionMethod extractFromSurface;
    extractFromSurfaceCoeffs
    {
        includedAngle   180;
    }
    writeObj        false;
}

flap.stl
{
    extractionMethod extractFromSurface;
    extractFromSurfaceCoeffs
    {
        includedAngle   180;
    }
    writeObj        false;
}

// ************************************************************************* //
